USER_CFLAGS =  -Wall -Wno-sign-compare -O2

EXECUTABLES     = astyle
astyle_OBJECTS   = astyle_main ASBeautifier ASFormatter ASResource
#astyle_LIBS      = C++

$(MODRULE)all: $(MODPATH) $(MODDEP)
	$(AT)echo " . . . $@ done"

$(MODRULE)install: $(MODPATH) install_$(MODDEP)
	$(AT)echo " . . . $@ done"

$(MODRULE)clean: $(MODPATH) clean_$(MODDEP)
	$(AT)echo " . . . $@ done"

$(MODRULE)clean_dist: $(MODPATH) clean_dist_$(MODDEP)
	$(AT)echo " . . . $@ done"
